electric-grid/physical/synthetic/synAustinTD/models/syn-austin-D_only-v03/P1U/base/opendss/p1uhs4_1247/Master.dss
Clear

New Circuit.substation_p1uhs4_69 bus1=p1uhs4_69 pu=1.0 basekV=69.0 R1=1e-05 X1=1e-05 R0=1e-05 X0=1e-05

Redirect Transformers.dss
Redirect p1uhs4_1247--p1udt7282/Transformers.dss
Redirect p1uhs4_1247--p1udt21090/Transformers.dss
Redirect Regulators.dss
Redirect p1uhs4_1247--p1udt7282/Loads.dss
Redirect p1uhs4_1247--p1udt21090/Loads.dss
Redirect LineCodes.dss
Redirect p1uhs4_1247--p1udt7282/LineCodes.dss
Redirect p1uhs4_1247--p1udt21090/LineCodes.dss
Redirect Lines.dss
Redirect p1uhs4_1247--p1udt7282/Lines.dss
Redirect p1uhs4_1247--p1udt21090/Lines.dss
Redirect p1uhs4_1247--p1udt7282/Capacitors.dss
Redirect p1uhs4_1247--p1udt21090/Capacitors.dss

Set Voltagebases=[0.2080002494301389, 0.48, 7.199560000000001, 12.47, 69.0]

Calcvoltagebases

Buscoords Buscoords.dss

Solve